<?xml version="1.0" encoding="iso-8859-1"?>
<configuration xmlns:xsi="http://www.w3.org/2001/XMLSchema-instance"
  xsi:noNamespaceSchemaLocation="http://sumo.dlr.de/xsd/sumoConfiguration.xsd">
    <input>
        <net-file    value="tamansari.net.xml"/>
        <route-files value="tamansari_sublane.rou.xml"/>
    </input>
    <time>
        <begin value="0"/>
        <end   value="5000"/>
    </time>
</configuration>
