<?xml version="1.0" encoding="UTF-8"?>

<!-- generated on Fri 27 Mar 2020 13:14:06 WIB by Eclipse SUMO netedit Version 1.5.0
<configuration xmlns:xsi="http://www.w3.org/2001/XMLSchema-instance" xsi:noNamespaceSchemaLocation="http://sumo.dlr.de/xsd/netconvertConfiguration.xsd">

    <input>
        <sumo-net-file value="shiete.net.xml"/>
    </input>

    <output>
        <output-file value="shiete.net.xml"/>
        <output.street-names value="true"/>
    </output>

    <processing>
        <geometry.min-radius.fix.railways value="false"/>
        <geometry.max-grade.fix value="false"/>
        <offset.disable-normalization value="true"/>
        <lefthand value="true"/>
    </processing>

    <junctions>
        <no-turnarounds value="true"/>
        <junctions.corner-detail value="5"/>
        <junctions.limit-turn-speed value="5.5"/>
        <rectangular-lane-cut value="false"/>
    </junctions>

    <pedestrian>
        <walkingareas value="false"/>
    </pedestrian>

    <report>
        <aggregate-warnings value="5"/>
    </report>

</configuration>
-->

<net version="1.3" junctionCornerDetail="5" lefthand="true" limitTurnSpeed="5.50" xmlns:xsi="http://www.w3.org/2001/XMLSchema-instance" xsi:noNamespaceSchemaLocation="http://sumo.dlr.de/xsd/net_file.xsd">

    <location netOffset="-787990.32,763227.16" convBoundary="247.06,441.83,611.12,1149.09" origBoundary="107.605932,-6.899547,107.617857,-6.883759" projParameter="+proj=utm +zone=48 +ellps=WGS84 +datum=WGS84 +units=m +no_defs"/>

    <type id="highway.bridleway" priority="1" numLanes="1" speed="2.78" allow="pedestrian" oneway="1" width="2.00"/>
    <type id="highway.bus_guideway" priority="1" numLanes="1" speed="27.78" allow="bus" oneway="1"/>
    <type id="highway.cycleway" priority="1" numLanes="1" speed="8.33" allow="bicycle" oneway="0" width="1.00"/>
    <type id="highway.footway" priority="1" numLanes="1" speed="2.78" allow="pedestrian" oneway="1" width="2.00"/>
    <type id="highway.ford" priority="1" numLanes="1" speed="2.78" allow="army" oneway="0"/>
    <type id="highway.living_street" priority="2" numLanes="1" speed="2.78" disallow="tram rail_urban rail rail_electric rail_fast ship" oneway="0"/>
    <type id="highway.motorway" priority="14" numLanes="2" speed="39.44" allow="private emergency authority army vip passenger hov taxi bus coach delivery truck trailer motorcycle evehicle custom1 custom2" oneway="1"/>
    <type id="highway.motorway_link" priority="9" numLanes="1" speed="22.22" allow="private emergency authority army vip passenger hov taxi bus coach delivery truck trailer motorcycle evehicle custom1 custom2" oneway="1"/>
    <type id="highway.path" priority="1" numLanes="1" speed="2.78" allow="pedestrian bicycle" oneway="1" width="2.00"/>
    <type id="highway.pedestrian" priority="1" numLanes="1" speed="2.78" allow="pedestrian" oneway="1" width="2.00"/>
    <type id="highway.primary" priority="12" numLanes="2" speed="27.78" disallow="tram rail_urban rail rail_electric rail_fast ship" oneway="0"/>
    <type id="highway.primary_link" priority="7" numLanes="1" speed="22.22" disallow="tram rail_urban rail rail_electric rail_fast ship" oneway="0"/>
    <type id="highway.raceway" priority="15" numLanes="2" speed="83.33" allow="vip" oneway="0"/>
    <type id="highway.residential" priority="3" numLanes="1" speed="13.89" disallow="tram rail_urban rail rail_electric rail_fast ship" oneway="0"/>
    <type id="highway.secondary" priority="11" numLanes="1" speed="27.78" disallow="tram rail_urban rail rail_electric rail_fast ship" oneway="0"/>
    <type id="highway.secondary_link" priority="6" numLanes="1" speed="22.22" disallow="tram rail_urban rail rail_electric rail_fast ship" oneway="0"/>
    <type id="highway.service" priority="1" numLanes="1" speed="5.56" allow="pedestrian delivery bicycle" oneway="0"/>
    <type id="highway.stairs" priority="1" numLanes="1" speed="1.39" allow="pedestrian" oneway="1" width="2.00"/>
    <type id="highway.step" priority="1" numLanes="1" speed="1.39" allow="pedestrian" oneway="1" width="2.00"/>
    <type id="highway.steps" priority="1" numLanes="1" speed="1.39" allow="pedestrian" oneway="1" width="2.00"/>
    <type id="highway.tertiary" priority="10" numLanes="1" speed="22.22" disallow="tram rail_urban rail rail_electric rail_fast ship" oneway="0"/>
    <type id="highway.tertiary_link" priority="5" numLanes="1" speed="22.22" disallow="tram rail_urban rail rail_electric rail_fast ship" oneway="0"/>
    <type id="highway.track" priority="1" numLanes="1" speed="5.56" disallow="tram rail_urban rail rail_electric rail_fast ship" oneway="0"/>
    <type id="highway.trunk" priority="13" numLanes="2" speed="27.78" disallow="pedestrian bicycle tram rail_urban rail rail_electric rail_fast ship" oneway="0"/>
    <type id="highway.trunk_link" priority="8" numLanes="1" speed="22.22" disallow="pedestrian bicycle tram rail_urban rail rail_electric rail_fast ship" oneway="0"/>
    <type id="highway.unclassified" priority="4" numLanes="1" speed="13.89" disallow="tram rail_urban rail rail_electric rail_fast ship" oneway="0"/>
    <type id="highway.unsurfaced" priority="1" numLanes="1" speed="8.33" disallow="tram rail_urban rail rail_electric rail_fast ship" oneway="0"/>
    <type id="railway.highspeed" priority="21" numLanes="1" speed="69.44" allow="rail_fast" oneway="1"/>
    <type id="railway.light_rail" priority="19" numLanes="1" speed="27.78" allow="rail_urban" oneway="1"/>
    <type id="railway.preserved" priority="16" numLanes="1" speed="27.78" allow="rail" oneway="1"/>
    <type id="railway.rail" priority="20" numLanes="1" speed="44.44" allow="rail" oneway="1"/>
    <type id="railway.subway" priority="18" numLanes="1" speed="27.78" allow="rail_urban" oneway="1"/>
    <type id="railway.tram" priority="17" numLanes="1" speed="13.89" allow="tram" oneway="1"/>

    <edge id=":point_a_0" function="internal">
        <lane id=":point_a_0_0" index="0" disallow="tram rail_urban rail rail_electric rail_fast ship" speed="27.78" length="0.30" shape="499.61,1102.70 499.34,1102.60"/>
        <lane id=":point_a_0_1" index="1" disallow="tram rail_urban rail rail_electric rail_fast ship" speed="27.78" length="0.30" shape="498.43,1105.68 498.15,1105.57"/>
    </edge>
    <edge id=":point_a_2" function="internal">
        <lane id=":point_a_2_0" index="0" disallow="tram rail_urban rail rail_electric rail_fast ship" speed="27.78" length="0.30" shape="495.78,1111.51 496.07,1111.63"/>
        <lane id=":point_a_2_1" index="1" disallow="tram rail_urban rail rail_electric rail_fast ship" speed="27.78" length="0.30" shape="496.97,1108.54 497.25,1108.65"/>
    </edge>
    <edge id=":point_b_0" function="internal">
        <lane id=":point_b_0_0" index="0" disallow="tram rail_urban rail rail_electric rail_fast ship" speed="27.78" length="0.32" shape="487.93,1099.04 487.59,1099.00"/>
        <lane id=":point_b_0_1" index="1" disallow="tram rail_urban rail rail_electric rail_fast ship" speed="27.78" length="0.32" shape="487.52,1102.21 487.21,1102.17"/>
    </edge>
    <edge id=":point_b_2" function="internal">
        <lane id=":point_b_2_0" index="0" disallow="tram rail_urban rail rail_electric rail_fast ship" speed="27.78" length="0.27" shape="486.46,1108.53 486.71,1108.56"/>
        <lane id=":point_b_2_1" index="1" disallow="tram rail_urban rail rail_electric rail_fast ship" speed="27.78" length="0.27" shape="486.83,1105.35 487.11,1105.39"/>
    </edge>
    <edge id=":point_c_0" function="internal">
        <lane id=":point_c_0_0" index="0" disallow="tram rail_urban rail rail_electric rail_fast ship" speed="27.78" length="0.35" shape="444.62,1093.88 444.23,1093.84"/>
        <lane id=":point_c_0_1" index="1" disallow="tram rail_urban rail rail_electric rail_fast ship" speed="27.78" length="0.35" shape="444.24,1097.06 443.94,1097.02"/>
    </edge>
    <edge id=":point_c_2" function="internal">
        <lane id=":point_c_2_0" index="0" disallow="tram rail_urban rail rail_electric rail_fast ship" speed="27.78" length="0.18" shape="443.35,1103.40 443.48,1103.41"/>
        <lane id=":point_c_2_1" index="1" disallow="tram rail_urban rail rail_electric rail_fast ship" speed="27.78" length="0.18" shape="443.64,1100.21 443.86,1100.23"/>
    </edge>
    <edge id=":point_d_0" function="internal">
        <lane id=":point_d_0_0" index="0" disallow="tram rail_urban rail rail_electric rail_fast ship" speed="27.78" length="0.14" shape="255.78,834.33 255.77,834.26"/>
        <lane id=":point_d_0_1" index="1" disallow="tram rail_urban rail rail_electric rail_fast ship" speed="27.78" length="0.14" shape="252.58,834.54 252.58,834.36"/>
    </edge>
    <edge id=":point_d_2" function="internal">
        <lane id=":point_d_2_0" index="0" disallow="tram rail_urban rail rail_electric rail_fast ship" speed="27.78" length="0.35" shape="246.18,834.54 246.20,834.95"/>
        <lane id=":point_d_2_1" index="1" disallow="tram rail_urban rail rail_electric rail_fast ship" speed="27.78" length="0.35" shape="249.38,834.45 249.39,834.74"/>
    </edge>
    <edge id=":selatan_0" function="internal">
        <lane id=":selatan_0_0" index="0" disallow="tram rail_urban rail rail_electric rail_fast ship" speed="3.65" length="4.67" shape="277.45,442.18 276.93,440.83 276.24,440.27 275.37,440.49 274.33,441.48"/>
    </edge>
    <edge id=":utara_0" function="internal">
        <lane id=":utara_0_0" index="0" disallow="tram rail_urban rail rail_electric rail_fast ship" speed="3.65" length="4.67" shape="609.20,1153.14 610.61,1152.84 611.28,1152.25 611.20,1151.36 610.38,1150.17"/>
    </edge>

    <edge id="-jalan#1" from="point_d" to="selatan" name="Jalan Taman Sari" priority="11" type="highway.secondary" shape="250.98,834.52 248.83,760.55 247.06,589.18 253.74,541.86 275.89,441.83">
        <lane id="-jalan#1_0" index="0" disallow="tram rail_urban rail rail_electric rail_fast ship" speed="27.78" length="394.71" shape="255.77,834.26 253.63,760.46 251.86,589.49 258.47,542.72 280.58,442.87">
            <param key="origId" value="318729560"/>
        </lane>
        <lane id="-jalan#1_1" index="1" disallow="tram rail_urban rail rail_electric rail_fast ship" speed="27.78" length="394.71" shape="252.58,834.36 250.43,760.52 248.66,589.28 255.32,542.15 277.45,442.18">
            <param key="origId" value="318729560"/>
        </lane>
    </edge>
    <edge id="-jalan#2" from="point_c" to="point_d" name="Jalan Taman Sari" priority="11" type="highway.secondary" shape="443.92,1098.63 287.46,1084.26 278.52,1080.48 271.19,1072.32 267.09,1059.00 262.54,1012.98 250.98,834.52">
        <lane id="-jalan#2_0" index="0" disallow="tram rail_urban rail rail_electric rail_fast ship" speed="27.78" length="411.98" shape="444.23,1093.84 288.64,1079.55 281.38,1076.48 275.47,1069.90 271.82,1058.05 267.32,1012.59 255.78,834.33">
            <param key="origId" value="4623278 318729560"/>
        </lane>
        <lane id="-jalan#2_1" index="1" disallow="tram rail_urban rail rail_electric rail_fast ship" speed="27.78" length="411.98" shape="443.94,1097.02 287.85,1082.69 279.47,1079.15 272.62,1071.51 268.67,1058.68 264.13,1012.85 252.58,834.54">
            <param key="origId" value="4623278 318729560"/>
        </lane>
    </edge>
    <edge id="-jalan#3" from="point_b" to="point_c" name="Jalan Taman Sari" priority="11" type="highway.secondary">
        <lane id="-jalan#3_0" index="0" disallow="tram rail_urban rail rail_electric rail_fast ship" speed="27.78" length="43.28" shape="487.59,1099.00 444.62,1093.88">
            <param key="origId" value="4623278"/>
        </lane>
        <lane id="-jalan#3_1" index="1" disallow="tram rail_urban rail rail_electric rail_fast ship" speed="27.78" length="43.28" shape="487.21,1102.17 444.24,1097.06">
            <param key="origId" value="4623278"/>
        </lane>
    </edge>
    <edge id="-jalan#4" from="point_a" to="point_b" name="Jalan Taman Sari" priority="11" type="highway.secondary" shape="497.70,1107.11 490.37,1104.19 487.17,1103.78">
        <lane id="-jalan#4_0" index="0" disallow="tram rail_urban rail rail_electric rail_fast ship" speed="27.78" length="11.63" shape="499.34,1102.60 491.58,1099.51 487.93,1099.04">
            <param key="origId" value="4623278"/>
        </lane>
        <lane id="-jalan#4_1" index="1" disallow="tram rail_urban rail rail_electric rail_fast ship" speed="27.78" length="11.63" shape="498.15,1105.57 490.77,1102.63 487.52,1102.21">
            <param key="origId" value="4623278"/>
        </lane>
    </edge>
    <edge id="-jalan#5" from="utara" to="point_a" name="Jalan Taman Sari" priority="11" type="highway.secondary" shape="603.32,1149.09 596.46,1146.37 515.41,1114.15 497.70,1107.11">
        <lane id="-jalan#5_0" index="0" disallow="tram rail_urban rail rail_electric rail_fast ship" speed="27.78" length="120.47" shape="611.56,1147.19 598.23,1141.91 517.18,1109.69 499.61,1102.70">
            <param key="origId" value="4623278"/>
        </lane>
        <lane id="-jalan#5_1" index="1" disallow="tram rail_urban rail rail_electric rail_fast ship" speed="27.78" length="120.47" shape="610.38,1150.17 597.05,1144.88 516.00,1112.66 498.43,1105.68">
            <param key="origId" value="4623278"/>
        </lane>
        <param key="origFrom" value="3029432626"/>
    </edge>
    <edge id="jalan#1" from="selatan" to="point_d" name="Jalan Taman Sari" priority="11" type="highway.secondary" shape="275.89,441.83 253.74,541.86 247.06,589.18 248.83,760.55 250.98,834.52">
        <lane id="jalan#1_0" index="0" disallow="tram rail_urban rail rail_electric rail_fast ship" speed="27.78" length="396.30" shape="271.20,440.79 249.01,541.00 242.26,588.87 244.03,760.64 246.18,834.54">
            <param key="origId" value="318729560"/>
        </lane>
        <lane id="jalan#1_1" index="1" disallow="tram rail_urban rail rail_electric rail_fast ship" speed="27.78" length="396.30" shape="274.33,441.48 252.16,541.57 245.46,589.08 247.23,760.58 249.38,834.45">
            <param key="origId" value="318729560"/>
        </lane>
    </edge>
    <edge id="jalan#2" from="point_d" to="point_c" name="Jalan Taman Sari" priority="11" type="highway.secondary" shape="250.98,834.52 251.37,840.53 262.54,1012.98 267.09,1059.00 271.19,1072.32 278.52,1080.48 287.46,1084.26 443.92,1098.63">
        <lane id="jalan#2_0" index="0" disallow="tram rail_urban rail rail_electric rail_fast ship" speed="27.78" length="421.14" shape="246.20,834.95 246.58,840.84 257.76,1013.37 262.36,1059.95 266.91,1074.74 275.66,1084.48 286.28,1088.97 443.35,1103.40">
            <param key="origId" value="318729560 4623278"/>
        </lane>
        <lane id="jalan#2_1" index="1" disallow="tram rail_urban rail rail_electric rail_fast ship" speed="27.78" length="421.14" shape="249.39,834.74 249.77,840.63 260.95,1013.11 265.51,1059.32 269.76,1073.13 277.57,1081.81 287.07,1085.83 443.64,1100.21">
            <param key="origId" value="318729560 4623278"/>
        </lane>
    </edge>
    <edge id="jalan#3" from="point_c" to="point_b" name="Jalan Taman Sari" priority="11" type="highway.secondary">
        <lane id="jalan#3_0" index="0" disallow="tram rail_urban rail rail_electric rail_fast ship" speed="27.78" length="43.28" shape="443.48,1103.41 486.46,1108.53">
            <param key="origId" value="4623278"/>
        </lane>
        <lane id="jalan#3_1" index="1" disallow="tram rail_urban rail rail_electric rail_fast ship" speed="27.78" length="43.28" shape="443.86,1100.23 486.83,1105.35">
            <param key="origId" value="4623278"/>
        </lane>
    </edge>
    <edge id="jalan#4" from="point_b" to="point_a" name="Jalan Taman Sari" priority="11" type="highway.secondary" shape="487.17,1103.78 490.37,1104.19 497.70,1107.11">
        <lane id="jalan#4_0" index="0" disallow="tram rail_urban rail rail_electric rail_fast ship" speed="27.78" length="10.01" shape="486.71,1108.56 489.16,1108.87 495.78,1111.51">
            <param key="origId" value="4623278"/>
        </lane>
        <lane id="jalan#4_1" index="1" disallow="tram rail_urban rail rail_electric rail_fast ship" speed="27.78" length="10.01" shape="487.11,1105.39 489.97,1105.75 496.97,1108.54">
            <param key="origId" value="4623278"/>
        </lane>
    </edge>
    <edge id="jalan#5" from="point_a" to="utara" name="Jalan Taman Sari" priority="11" type="highway.secondary" shape="497.70,1107.11 515.41,1114.15 596.46,1146.37 603.32,1149.09">
        <lane id="jalan#5_0" index="0" disallow="tram rail_urban rail rail_electric rail_fast ship" speed="27.78" length="120.47" shape="496.07,1111.63 513.64,1118.61 594.69,1150.83 608.02,1156.12">
            <param key="origId" value="4623278"/>
        </lane>
        <lane id="jalan#5_1" index="1" disallow="tram rail_urban rail rail_electric rail_fast ship" speed="27.78" length="120.47" shape="497.25,1108.65 514.82,1115.64 595.87,1147.86 609.20,1153.14">
            <param key="origId" value="4623278"/>
        </lane>
        <param key="origTo" value="3029432626"/>
    </edge>

    <junction id="point_a" type="priority" x="497.70" y="1107.11" incLanes="-jalan#5_0 -jalan#5_1 jalan#4_0 jalan#4_1" intLanes=":point_a_0_0 :point_a_0_1 :point_a_2_0 :point_a_2_1" shape="500.20,1101.22 495.48,1113.11 495.19,1113.00 499.93,1101.11">
        <request index="0" response="0000" foes="0000" cont="0"/>
        <request index="1" response="0000" foes="0000" cont="0"/>
        <request index="2" response="0000" foes="0000" cont="0"/>
        <request index="3" response="0000" foes="0000" cont="0"/>
    </junction>
    <junction id="point_b" type="priority" x="487.17" y="1103.78" incLanes="-jalan#4_0 -jalan#4_1 jalan#3_0 jalan#3_1" intLanes=":point_b_0_0 :point_b_0_1 :point_b_2_0 :point_b_2_1" shape="488.13,1097.45 486.50,1110.15 486.27,1110.12 487.78,1097.41">
        <request index="0" response="0000" foes="0000" cont="0"/>
        <request index="1" response="0000" foes="0000" cont="0"/>
        <request index="2" response="0000" foes="0000" cont="0"/>
        <request index="3" response="0000" foes="0000" cont="0"/>
    </junction>
    <junction id="point_c" type="priority" x="443.92" y="1098.63" incLanes="-jalan#3_0 -jalan#3_1 jalan#2_0 jalan#2_1" intLanes=":point_c_0_0 :point_c_0_1 :point_c_2_0 :point_c_2_1" shape="444.81,1092.29 443.29,1105.00 444.37,1092.24">
        <request index="0" response="0000" foes="0000" cont="0"/>
        <request index="1" response="0000" foes="0000" cont="0"/>
        <request index="2" response="0000" foes="0000" cont="0"/>
        <request index="3" response="0000" foes="0000" cont="0"/>
    </junction>
    <junction id="point_d" type="priority" x="250.98" y="834.52" incLanes="-jalan#2_0 -jalan#2_1 jalan#1_0 jalan#1_1" intLanes=":point_d_0_0 :point_d_0_1 :point_d_2_0 :point_d_2_1" shape="257.37,834.22 244.60,835.05 244.58,834.59 257.37,834.22">
        <request index="0" response="0000" foes="0000" cont="0"/>
        <request index="1" response="0000" foes="0000" cont="0"/>
        <request index="2" response="0000" foes="0000" cont="0"/>
        <request index="3" response="0000" foes="0000" cont="0"/>
    </junction>
    <junction id="selatan" type="priority" x="275.89" y="441.83" incLanes="-jalan#1_0 -jalan#1_1" intLanes=":selatan_0_0" shape="275.89,441.83 282.14,443.21 275.89,441.83">
        <request index="0" response="0" foes="0" cont="0"/>
    </junction>
    <junction id="utara" type="priority" x="611.12" y="1148.31" incLanes="jalan#5_0 jalan#5_1" intLanes=":utara_0_0" shape="609.79,1151.66 607.43,1157.61 609.79,1151.66">
        <request index="0" response="0" foes="0" cont="0"/>
    </junction>

    <connection from="-jalan#1" to="jalan#1" fromLane="1" toLane="1" via=":selatan_0_0" dir="T" state="M"/>
    <connection from="-jalan#2" to="-jalan#1" fromLane="0" toLane="0" via=":point_d_0_0" dir="s" state="M"/>
    <connection from="-jalan#2" to="-jalan#1" fromLane="1" toLane="1" via=":point_d_0_1" dir="s" state="M"/>
    <connection from="-jalan#3" to="-jalan#2" fromLane="0" toLane="0" via=":point_c_0_0" dir="s" state="M"/>
    <connection from="-jalan#3" to="-jalan#2" fromLane="1" toLane="1" via=":point_c_0_1" dir="s" state="M"/>
    <connection from="-jalan#4" to="-jalan#3" fromLane="0" toLane="0" via=":point_b_0_0" dir="s" state="M"/>
    <connection from="-jalan#4" to="-jalan#3" fromLane="1" toLane="1" via=":point_b_0_1" dir="s" state="M"/>
    <connection from="-jalan#5" to="-jalan#4" fromLane="0" toLane="0" via=":point_a_0_0" dir="s" state="M"/>
    <connection from="-jalan#5" to="-jalan#4" fromLane="1" toLane="1" via=":point_a_0_1" dir="s" state="M"/>
    <connection from="jalan#1" to="jalan#2" fromLane="0" toLane="0" via=":point_d_2_0" dir="s" state="M"/>
    <connection from="jalan#1" to="jalan#2" fromLane="1" toLane="1" via=":point_d_2_1" dir="s" state="M"/>
    <connection from="jalan#2" to="jalan#3" fromLane="0" toLane="0" via=":point_c_2_0" dir="s" state="M"/>
    <connection from="jalan#2" to="jalan#3" fromLane="1" toLane="1" via=":point_c_2_1" dir="s" state="M"/>
    <connection from="jalan#3" to="jalan#4" fromLane="0" toLane="0" via=":point_b_2_0" dir="s" state="M"/>
    <connection from="jalan#3" to="jalan#4" fromLane="1" toLane="1" via=":point_b_2_1" dir="s" state="M"/>
    <connection from="jalan#4" to="jalan#5" fromLane="0" toLane="0" via=":point_a_2_0" dir="s" state="M"/>
    <connection from="jalan#4" to="jalan#5" fromLane="1" toLane="1" via=":point_a_2_1" dir="s" state="M"/>
    <connection from="jalan#5" to="-jalan#5" fromLane="1" toLane="1" via=":utara_0_0" dir="T" state="M"/>

    <connection from=":point_a_0" to="-jalan#4" fromLane="0" toLane="0" dir="s" state="M"/>
    <connection from=":point_a_0" to="-jalan#4" fromLane="1" toLane="1" dir="s" state="M"/>
    <connection from=":point_a_2" to="jalan#5" fromLane="0" toLane="0" dir="s" state="M"/>
    <connection from=":point_a_2" to="jalan#5" fromLane="1" toLane="1" dir="s" state="M"/>
    <connection from=":point_b_0" to="-jalan#3" fromLane="0" toLane="0" dir="s" state="M"/>
    <connection from=":point_b_0" to="-jalan#3" fromLane="1" toLane="1" dir="s" state="M"/>
    <connection from=":point_b_2" to="jalan#4" fromLane="0" toLane="0" dir="s" state="M"/>
    <connection from=":point_b_2" to="jalan#4" fromLane="1" toLane="1" dir="s" state="M"/>
    <connection from=":point_c_0" to="-jalan#2" fromLane="0" toLane="0" dir="s" state="M"/>
    <connection from=":point_c_0" to="-jalan#2" fromLane="1" toLane="1" dir="s" state="M"/>
    <connection from=":point_c_2" to="jalan#3" fromLane="0" toLane="0" dir="s" state="M"/>
    <connection from=":point_c_2" to="jalan#3" fromLane="1" toLane="1" dir="s" state="M"/>
    <connection from=":point_d_0" to="-jalan#1" fromLane="0" toLane="0" dir="s" state="M"/>
    <connection from=":point_d_0" to="-jalan#1" fromLane="1" toLane="1" dir="s" state="M"/>
    <connection from=":point_d_2" to="jalan#2" fromLane="0" toLane="0" dir="s" state="M"/>
    <connection from=":point_d_2" to="jalan#2" fromLane="1" toLane="1" dir="s" state="M"/>
    <connection from=":selatan_0" to="jalan#1" fromLane="0" toLane="1" dir="T" state="M"/>
    <connection from=":utara_0" to="-jalan#5" fromLane="0" toLane="1" dir="T" state="M"/>

</net>
