<?xml version="1.0" encoding="UTF-8"?>

<!-- generated on Fri 27 Mar 2020 09:43:08 WIB by Eclipse SUMO GUI Version 1.5.0
<configuration xmlns:xsi="http://www.w3.org/2001/XMLSchema-instance" xsi:noNamespaceSchemaLocation="http://sumo.dlr.de/xsd/sumoConfiguration.xsd">

    <input>
        <net-file value="/home/kekavigi/shiete/shiete.net.xml"/>
        <route-files value="/home/kekavigi/Github/flow/flow/core/kernel/network/debug/cfg/shiete_20200327-0943051585276985.885711.rou.xml"/>
        <additional-files value="/home/kekavigi/Github/flow/flow/core/kernel/network/debug/cfg/shiete_20200327-0943051585276985.885711.add.xml"/>
    </input>

    <output>
        <emission-output value="data/shiete_20200327-0943051585276985.885711-emission.xml"/>
    </output>

    <time>
        <begin value="0"/>
        <step-length value="0.1"/>
    </time>

    <processing>
        <collision.check-junctions value="true"/>
        <time-to-teleport value="-1"/>
    </processing>

    <report>
        <no-step-log value="true"/>
    </report>

    <traci_server>
        <remote-port value="56633"/>
        <num-clients value="1"/>
    </traci_server>

    <gui_only>
        <gui-settings-file value="/home/kekavigi/Github/flow/flow/core/kernel/network/debug/cfg/shiete_20200327-0943051585276985.885711.gui.cfg"/>
        <tracker-interval value="0.1"/>
    </gui_only>

</configuration>
