<?xml version="1.0" encoding="iso-8859-1"?>


<routes>

	<!-- KENDARAAN DARI SELATAN KE UTARA -->
	<!-- https://sumo.dlr.de/docs/Definition_of_Vehicles,_Vehicle_Types,_and_Routes.html -->
	<!-- https://sumo.dlr.de/docs/Simulation/SublaneModel.html -->
    <vType id="mobil"  vClass="passenger"  maxSpeed="20" speedFactor="0.9" speedDev="0.2" sigma="0.5"  guiShape="passenger"       lcPushy="0.2"  lcSpeedGain="1.05" lcOpposite="1.1"/>
    <vType id="angkot" vClass="passenger"  maxSpeed="15" speedFactor="0.8" speedDev="0.3" sigma="0.65" guiShape="passenger/van"   lcPushy="0.4"  lcSpeedGain="1.2"  lcOpposite="1.2"/>
    <vType id="bus"    vClass="bus"        maxSpeed="15" speedFactor="0.8" speedDev="0.2" sigma="0.15" guiShape="bus"             lcPushy="0.02" lcSpeedGain="1.5"  lcOpposite="1.1"/>
    <vType id="motor"  vClass="motorcycle" maxSpeed="20" speedFactor="0.9" speedDev="0.3" sigma="0.2"  guiShape="motorcycle"      lcPushy="0.5"  lcSpeedGain="1.5"  lcOpposite="2.0"/>

	<!-- https://sumo.dlr.de/docs/Demand/Shortest_or_Optimal_Path_Routing.html -->
    <flow id="fmobil"  type="mobil"  begin="0" end="3600" vehsPerHour="260" from="jalan#1" to="jalan#5" departPos="last" departLane="free" departSpeed="desired"/>
    <flow id="fangkot" type="angkot" begin="0" end="3600" vehsPerHour="70"  from="jalan#1" to="jalan#5" departPos="last" departLane="free" departSpeed="desired">
		<stop lane="jalan#2_0" endPos="150" duration="10"/>	
		<stop lane="jalan#3_0" endPos="10"  duration="10"/>	
	</flow>
    <flow id="fbus"    type="bus"    begin="0" end="3600" vehsPerHour="6"    from="jalan#1" to="jalan#5" departPos="last" departLane="free" departSpeed="desired"/>
    <flow id="fmotor"  type="motor"  begin="0" end="3600" vehsPerHour="660"  from="jalan#1" to="jalan#5" departPos="last" departLane="free" departSpeed="desired"/>

	<!-- KENDARAAN DARI UTARA KE SELATAN -->
    <vType id="-mobil"  vClass="passenger"  maxSpeed="20" speedFactor="0.9" speedDev="0.2" sigma="0.5"  guiShape="passenger"       lcPushy="0.2"  lcSpeedGain="1.05" lcOpposite="1.1"/>
    <vType id="-angkot" vClass="passenger"  maxSpeed="15" speedFactor="0.8" speedDev="0.3" sigma="0.65" guiShape="passenger/van"   lcPushy="0.4"  lcSpeedGain="1.2"  lcOpposite="1.2"/>
    <vType id="-bus"    vClass="bus"        maxSpeed="15" speedFactor="0.8" speedDev="0.2" sigma="0.15" guiShape="bus"             lcPushy="0.02" lcSpeedGain="1.5"  lcOpposite="1.1"/>
    <vType id="-motor"  vClass="motorcycle" maxSpeed="20" speedFactor="0.9" speedDev="0.3" sigma="0.2"  guiShape="motorcycle"      lcPushy="0.5"  lcSpeedGain="1.5"  lcOpposite="2.0"/>

    <flow id="-fmobil"  type="-mobil" begin="0" end="3600" vehsPerHour="260"  from="-jalan#5" to="jalan#1" departPos="last" departLane="free" departSpeed="desired"/>
    <flow id="-fangkot" type="-angkot" begin="0" end="3600" vehsPerHour="70"  from="-jalan#5" to="jalan#1" departPos="last" departLane="free" departSpeed="desired">
		<stop lane="-jalan#2_0" endPos="60"  duration="10"/>	
		<stop lane="-jalan#2_0" endPos="120" duration="10"/>
	</flow>
    <flow id="-fbus"    type="-bus"    begin="0" end="3600" vehsPerHour="6"    from="-jalan#5" to="-jalan#1" departPos="last" departLane="free" departSpeed="desired"/>
    <flow id="-fmotor"  type="-motor"  begin="0" end="3600" vehsPerHour="660"  from="-jalan#5" to="-jalan#1" departPos="last" departLane="free" departSpeed="desired"/>


</routes>

